psse/psse-converter/src/test/resources/full_export.raw
0,100.0,35,0,0,50.0
Fri, 1 Jan 2016 10:00:00 +0200 Psse.fullExport

0 / END OF SYSTEM-WIDE DATA, BEGIN BUS DATA
1,'Vl1-Sub1_1',400.0,3,1,1,1,1.0,0.0,1.1,0.9,1.1,0.9
2,'Vl1-Sub2_1',400.0,1,1,1,1,1.0,0.0,1.1,0.9,1.1,0.9
3,'Vl1-Sub3_1',400.0,1,1,1,1,1.0,0.0,1.1,0.9,1.1,0.9
4,'DanglingLine',400.0,2,1,1,1,1.0,0.0,1.1,0.9,1.1,0.9
5,'Vl2-Sub3_0',25.0,1,1,1,1,1.0,0.0,1.1,0.9,1.1,0.9
6,'Vl1-Sub4_1',400.0,1,1,1,1,1.0,0.0,1.1,0.9,1.1,0.9
7,'Vl2-Sub4_1',110.0,1,1,1,1,1.0,0.0,1.1,0.9,1.1,0.9
8,'Vl3-Sub4_1',25.0,1,1,1,1,1.0,0.0,1.1,0.9,1.1,0.9
9,'Vl1-Sub5_1',400.0,1,1,1,1,1.0,0.0,1.1,0.9,1.1,0.9
10,'DanglingLine',400.0,1,1,1,1,1.0,0.0,1.1,0.9,1.1,0.9
11,'Vl1-Sub6_1',400.0,1,1,1,1,1.0,0.0,1.1,0.9,1.1,0.9
12,'Vl1-Sub7_0',400.0,1,1,1,1,1.0,0.0,1.1,0.9,1.1,0.9
0 / END OF BUS DATA, BEGIN LOAD DATA
3,'01',1,1,1,25.0,5.0,0.0,0.0,0.0,0.0,1,1,0,0.0,0.0,0,''
5,'01',1,1,1,10.0,2.0,0.0,0.0,0.0,0.0,1,1,0,0.0,0.0,0,''
7,'01',1,1,1,12.0,4.0,0.0,0.0,0.0,0.0,1,1,0,0.0,0.0,0,''
9,'01',1,1,1,-14.0,-3.5,0.0,0.0,0.0,0.0,1,1,0,0.0,0.0,0,''
9,'02',1,1,1,2.0,0.25,0.0,0.0,0.0,0.0,1,1,0,0.0,0.0,0,''
10,'01',1,1,1,7.0,1.25,0.0,0.0,0.0,0.0,1,1,0,0.0,0.0,0,''
11,'01',1,1,1,5.0,2.0,0.0,0.0,0.0,0.0,1,1,0,0.0,0.0,0,''
12,'01',1,1,1,5.0,0.5,0.0,0.0,0.0,0.0,1,1,0,0.0,0.0,0,''
0 / END OF LOAD DATA, BEGIN FIXED SHUNT DATA
6,'01',1,160.0,16000.0
7,'01',1,12.1,1210.0
0 / END OF FIXED SHUNT DATA, BEGIN GENERATOR DATA
1,'01',50.0,10.0,230.0,-225.0,1.0125,0,4,100.0,0.0,1.0,0.0,0.0,1.0,1,100.0,100.0,1.0,0,1,1.0,0,1.0,0,1.0,0,1.0,0,1.0
4,'01',10.5,2.5,35.0,-25.0,1.0125,4,0,100.0,0.0,1.0,0.0,0.0,1.0,1,100.0,100.0,0.0,0,1,1.0,0,1.0,0,1.0,0,1.0,0,1.0
8,'01',0.5,5.5,230.0,-225.0,1.0,0,12,100.0,0.0,1.0,0.0,0.0,1.0,1,100.0,100.0,1.0,0,1,1.0,0,1.0,0,1.0,0,1.0,0,1.0
9,'01',2.0,2.0,230.0,-225.0,1.0,0,4,100.0,0.0,1.0,0.0,0.0,1.0,0,100.0,100.0,1.0,0,1,1.0,0,1.0,0,1.0,0,1.0,0,1.0
0 / END OF GENERATOR DATA, BEGIN BRANCH DATA
1,2,'01',0.00625,0.05625,0.0,'Line-Vl1-Sub1-Vl1-Sub2',346.41016151377545,381.05117766515303,0.0,0.0,0.0,0.0,0.0,0.0,0.0,0.0,0.0,0.0,0.0,0.0,0.0,0.0,1,1,0.0,1,1.0,0,1.0,0,1.0,0,1.0
1,6,'01',0.00625,0.05625,0.0,'Line-Vl1-Sub1-Vl1-Sub4',346.41016151377545,381.05117766515303,0.0,0.0,0.0,0.0,0.0,0.0,0.0,0.0,0.0,0.0,0.0,0.0,0.0,0.0,1,1,0.0,1,1.0,0,1.0,0,1.0,0,1.0
1,9,'01',0.00625,0.05625,0.0,'Line-Vl1-Sub1-Vl1-Sub5',346.41016151377545,381.05117766515303,0.0,0.0,0.0,0.0,0.0,0.0,0.0,0.0,0.0,0.0,0.0,0.0,0.0,0.0,1,1,0.0,1,1.0,0,1.0,0,1.0,0,1.0
1,12,'01',0.009375,0.0625,0.0,'Line-Vl1-Sub1-Vl1-Sub7',346.41016151377545,381.05117766515303,0.0,0.0,0.0,0.0,0.0,0.0,0.0,0.0,0.0,0.0,0.0,0.0,0.0,0.0,1,1,0.0,1,1.0,0,1.0,0,1.0,0,1.0
2,3,'01',0.00625,0.05625,0.0,'Line-Vl1-Sub2-Vl1-Sub3',346.41016151377545,381.05117766515303,0.0,0.0,0.0,0.0,0.0,0.0,0.0,0.0,0.0,0.0,0.0,0.0,0.0,0.0,1,1,0.0,1,1.0,0,1.0,0,1.0,0,1.0
2,11,'01',0.012499999999999995,0.1125,0.0,'TieLine-Vl1-Sub2-Vl1-Sub6',0.0,0.0,0.0,0.0,0.0,0.0,0.0,0.0,0.0,0.0,0.0,0.0,32.0,1919.9999999999993,32.0,1919.9999999999993,1,1,0.0,1,1.0,0,1.0,0,1.0,0,1.0
3,4,'01',0.003125,0.053125,0.0,'DanglingLine-Vl1-S3',0.0,0.0,0.0,0.0,0.0,0.0,0.0,0.0,0.0,0.0,0.0,0.0,0.0,0.0,0.0,0.0,1,1,0.0,1,1.0,0,1.0,0,1.0,0,1.0
9,10,'01',0.00625,0.05625,0.0,'DanglingLine-Vl1-Sub5',0.0,0.0,0.0,0.0,0.0,0.0,0.0,0.0,0.0,0.0,0.0,0.0,32.0,1920.0,0.0,0.0,1,1,0.0,1,1.0,0,1.0,0,1.0,0,1.0
0 / END OF BRANCH DATA, BEGIN SYSTEM SWITCHING DEVICE DATA
0 / END OF SYSTEM SWITCHING DEVICE DATA, BEGIN TRANSFORMER DATA
3,5,0,'01',1,1,1,6.25E-4,-0.00125,2,'T2w-Vl1-Vl2-Sub3',1,1,1.0,0,1.0,0,1.0,0,1.0,'            ',0
1.6E-4,0.0016,100.0
0.9900990099009901,0.0,0.0,0.0,0.0,0.0,0.0,0.0,0.0,0.0,0.0,0.0,0.0,0.0,0.0,0,0,0,1.1,0.9,1.1,0.9,33,0,0.0,0.0,0.0
1.0,0.0
6,7,8,'01',1,1,1,0.16,-3.2,2,'T3w-Vl1-Vl2-Vl3-Sub4',1,1,1.0,0,1.0,0,1.0,0,1.0,'            ',0
6.25E-7,1.8750000000000003E-4,100.0,1.875E-6,2.8125000000000003E-4,100.0,1.25E-6,2.1874999999999998E-4,100.0,0.0,0.0
1.03,0.0,0.0,0.0,0.0,0.0,0.0,0.0,0.0,0.0,0.0,0.0,0.0,0.0,0.0,0,0,0,1.1,0.9,1.1,0.9,33,0,0.0,0.0,0.0
1.0,0.0,0.0,0.0,0.0,0.0,0.0,0.0,0.0,0.0,0.0,0.0,0.0,0.0,0.0,0,0,0,1.1,0.9,1.1,0.9,33,0,0.0,0.0,0.0
1.0,0.0,0.0,0.0,0.0,0.0,0.0,0.0,0.0,0.0,0.0,0.0,0.0,0.0,0.0,0,0,0,1.1,0.9,1.1,0.9,33,0,0.0,0.0,0.0
0 / END OF TRANSFORMER DATA, BEGIN AREA DATA
0 / END OF AREA DATA, BEGIN TWO-TERMINAL DC DATA
'Lcc-Vl1-Sub2',1,0.0015,35.0,400.0,0.0,0.0,0.0,'I',0.0,20,1.0
2,0,0.0,0.0,0.0,0.0,0.0,1.0,1.0,1.5,0.51,0.00625,0,0,0,0,'1',0.0
9,0,0.0,0.0,0.0,0.0,0.0,1.0,1.0,1.5,0.51,0.00625,0,0,0,0,'1',0.0
0 / END OF TWO-TERMINAL DC DATA, BEGIN VOLTAGE SOURCE CONVERTER DATA
'Vsc-Vl1-Sub2',1,0.001,1,1.0,0,1.0,0,1.0,0,1.0
2,2,1,-25.0,1.0,-0.2500000118743628,0.0,0.0,0.0,0.0,1.0,300.0,-250.0,0,4,100.0
6,2,2,24.999246098870625,0.9999919996134918,0.499984945725422,0.0,0.0,0.0,0.0,1.0,310.0,-260.0,0,2,100.0
0 / END OF VOLTAGE SOURCE CONVERTER DATA, BEGIN IMPEDANCE CORRECTION DATA
0 / END OF IMPEDANCE CORRECTION DATA, BEGIN MULTI-TERMINAL DC DATA
0 / END OF MULTI-TERMINAL DC DATA, BEGIN MULTI-SECTION LINE DATA
0 / END OF MULTI-SECTION LINE DATA, BEGIN ZONE DATA
0 / END OF ZONE DATA, BEGIN INTER-AREA TRANSFER DATA
0 / END OF INTER-AREA TRANSFER DATA, BEGIN OWNER DATA
0 / END OF OWNER DATA, BEGIN FACTS CONTROL DEVICE DATA
'StaticVar-Vl',8,0,1,0.0,0.0,1.02,6250.0,9999.0,0.9,1.1,1.0,0.0,0.05,100.0,1,0.0,0.0,0,6,3,''
0 / END OF FACTS CONTROL DEVICE DATA, BEGIN SWITCHED SHUNT DATA
7,'01',1,0,1,1.0122727272727272,1.0077272727272726,0,8,100.0,'',1210.0,1,2,1210.0,1,0,0.0,1,0,0.0,1,0,0.0,1,0,0.0,1,0,0.0,1,0,0.0,1,0,0.0
0 / END OF SWITCHED SHUNT DATA, BEGIN GNE DEVICE DATA
0 / END OF GNE DEVICE DATA, BEGIN INDUCTION MACHINE DATA
0 / END OF INDUCTION MACHINE DATA, BEGIN SUBSTATION DATA
1,'Sub1',0.0,0.0,0.1
1,'Vl1-Sub1-1',1,1,1.0,0.0
2,'Vl1-Sub1-2',1,1,1.0,0.0
3,'Vl1-Sub1-3',1,1,1.0,0.0
4,'Vl1-Sub1-4',1,1,1.0,0.0
5,'Vl1-Sub1-5',1,1,1.0,0.0
6,'Vl1-Sub1-6',1,1,1.0,0.0
7,'Vl1-Sub1-7',1,1,1.0,0.0
0 /  END OF SUBSTATION NODE DATA, BEGIN SUBSTATION SWITCHING DEVICE DATA
1,2,'01','Sw1-Vl1-Sub1',2,1,1,1.0E-4,0.0,0.0,0.0
1,3,'01','Sw-Line-Vl1-Sub1-Sub2',2,1,1,1.0E-4,0.0,0.0,0.0
2,4,'01','Sw-Gen-Vl1-Sub1',2,1,1,1.0E-4,0.0,0.0,0.0
2,5,'01','Sw-Line-Vl1-Sub1-Sub7',2,1,1,1.0E-4,0.0,0.0,0.0
2,6,'01','Sw-Line-Vl1-Sub1-Sub4',2,1,1,1.0E-4,0.0,0.0,0.0
2,7,'01','Sw-Line-Vl1-Sub1-Sub5',2,1,1,1.0E-4,0.0,0.0,0.0
0 /  END OF SUBSTATION SWITCHING DEVICE DATA, BEGIN SUBSTATION EQUIPMENT TERMINAL DATA
1,4,'M','01'
1,3,'B',2,'01'
1,5,'B',12,'01'
1,6,'B',6,'01'
1,7,'B',9,'01'
0 /  END OF SUBSTATION EQUIPMENT TERMINAL DATA
2,'Sub2',0.0,0.0,0.1
1,'Vl1-Sub2-1',2,1,1.0,0.0
2,'Vl1-Sub2-2',2,1,1.0,0.0
3,'Vl1-Sub2-3',2,1,1.0,0.0
4,'Vl1-Sub2-4',2,1,1.0,0.0
5,'Vl1-Sub2-5',2,1,1.0,0.0
6,'Vl1-Sub2-6',2,1,1.0,0.0
0 /  END OF SUBSTATION NODE DATA, BEGIN SUBSTATION SWITCHING DEVICE DATA
1,2,'01','Sw-Line-Vl1-Sub2-Sub1',2,1,1,1.0E-4,0.0,0.0,0.0
1,3,'01','Sw-Line-Vl1-Sub2-Sub3',2,1,1,1.0E-4,0.0,0.0,0.0
1,4,'01','Sw-Vsc-Vl1-Sub2-Sub4',2,1,1,1.0E-4,0.0,0.0,0.0
1,5,'01','Sw-Lcc-Vl1-Sub2-Sub5',2,1,1,1.0E-4,0.0,0.0,0.0
1,6,'01','Sw-DanglingLine-Vl1-Sub2',2,1,1,1.0E-4,0.0,0.0,0.0
0 /  END OF SUBSTATION SWITCHING DEVICE DATA, BEGIN SUBSTATION EQUIPMENT TERMINAL DATA
2,4,'V','Vsc-Vl1-Sub2'
2,5,'D','Lcc-Vl1-Sub2'
2,2,'B',1,'01'
2,3,'B',3,'01'
2,6,'B',11,'01'
0 /  END OF SUBSTATION EQUIPMENT TERMINAL DATA
3,'Sub3',0.0,0.0,0.1
1,'Vl1-Sub3-1',3,1,1.0,0.0
2,'Vl1-Sub3-2',3,1,1.0,0.0
3,'Vl1-Sub3-3',3,1,1.0,0.0
4,'Vl1-Sub3-4',3,1,1.0,0.0
5,'Vl1-Sub3-5',3,1,1.0,0.0
0 /  END OF SUBSTATION NODE DATA, BEGIN SUBSTATION SWITCHING DEVICE DATA
1,2,'01','Sw-Line-Vl1-Sub3-Sub2',2,1,1,1.0E-4,0.0,0.0,0.0
1,3,'01','Sw-Load-Vl1-Sub3',2,1,1,1.0E-4,0.0,0.0,0.0
1,4,'01','Sw-T2w-Vl1-Sub3',2,1,1,1.0E-4,0.0,0.0,0.0
1,5,'01','Sw-DanglingLine-Vl1-Sub3',2,1,1,1.0E-4,0.0,0.0,0.0
0 /  END OF SUBSTATION SWITCHING DEVICE DATA, BEGIN SUBSTATION EQUIPMENT TERMINAL DATA
3,3,'L','01'
3,2,'B',2,'01'
3,4,'2',5,'01'
3,5,'B',4,'01'
0 /  END OF SUBSTATION EQUIPMENT TERMINAL DATA
4,'Sub4',0.0,0.0,0.1
1,'Vl1-Sub4-1',6,1,1.0,0.0
2,'Vl1-Sub4-2',6,1,1.0,0.0
3,'Vl1-Sub4-3',6,1,1.0,0.0
4,'Vl1-Sub4-4',6,1,1.0,0.0
5,'Vl1-Sub4-5',6,1,1.0,0.0
6,'Vl2-Sub4-1',7,1,1.0,0.0
7,'Vl2-Sub4-2',7,1,1.0,0.0
8,'Vl2-Sub4-3',7,1,1.0,0.0
9,'Vl2-Sub4-4',7,1,1.0,0.0
10,'Vl3-Sub4-1',8,1,1.0,0.0
11,'Vl3-Sub4-2',8,1,1.0,0.0
12,'Vl3-Sub4-3',8,1,1.0,0.0
13,'Vl3-Sub4-4',8,1,1.0,0.0
0 /  END OF SUBSTATION NODE DATA, BEGIN SUBSTATION SWITCHING DEVICE DATA
1,2,'01','Sw-Vsc-Vl1-Sub4-Sub2',2,1,1,1.0E-4,0.0,0.0,0.0
1,3,'01','Sw-FixedShunt-Vl1-Sub4',2,1,1,1.0E-4,0.0,0.0,0.0
1,4,'01','Sw-T3w-Vl1-Sub4',2,1,1,1.0E-4,0.0,0.0,0.0
1,5,'01','Sw-Line-Vl1-Sub4-sub1',2,1,1,1.0E-4,0.0,0.0,0.0
6,7,'01','Sw-T3w-Vl2-Sub4',2,1,1,1.0E-4,0.0,0.0,0.0
6,8,'01','Sw-SwitchedShunt-Vl2-Sub4',2,1,1,1.0E-4,0.0,0.0,0.0
6,9,'01','Sw-Load-Vl2-Sub4',2,1,1,1.0E-4,0.0,0.0,0.0
10,11,'01','Sw-T3w-Vl3-Sub4',2,1,1,1.0E-4,0.0,0.0,0.0
10,12,'01','Sw-Gen-Vl3-Sub4',2,1,1,1.0E-4,0.0,0.0,0.0
10,13,'01','Sw-StaticVar-Vl3-Sub4',2,1,1,1.0E-4,0.0,0.0,0.0
0 /  END OF SUBSTATION SWITCHING DEVICE DATA, BEGIN SUBSTATION EQUIPMENT TERMINAL DATA
6,2,'V','Vsc-Vl1-Sub2'
6,3,'F','01'
7,8,'S','01'
7,9,'L','01'
8,12,'M','01'
8,13,'A','StaticVar-Vl'
6,5,'B',1,'01'
6,4,'3',7,8,'01'
7,7,'3',6,8,'01'
8,11,'3',6,7,'01'
0 /  END OF SUBSTATION EQUIPMENT TERMINAL DATA
5,'Sub5',0.0,0.0,0.1
1,'Vl1-Sub5-1',9,1,1.0,0.0
2,'Vl1-Sub5-2',9,1,1.0,0.0
3,'Vl1-Sub5-3',9,1,1.0,0.0
4,'Vl1-Sub5-4',9,0,1.0,0.0
5,'Vl1-Sub5-5',9,1,1.0,0.0
6,'Vl1-Sub5-6',9,1,1.0,0.0
7,'Vl1-Sub5-7',9,1,1.0,0.0
0 /  END OF SUBSTATION NODE DATA, BEGIN SUBSTATION SWITCHING DEVICE DATA
1,2,'01','Sw-Lcc-Vl1-Sub5-Sub2',2,1,1,1.0E-4,0.0,0.0,0.0
1,3,'01','Sw-DanglingLine-Vl1-Sub5',2,1,1,1.0E-4,0.0,0.0,0.0
1,4,'01','Sw-Gen-Vl1-Sub5',2,0,1,1.0E-4,0.0,0.0,0.0
1,5,'01','Sw-Load-Vl1-Sub5',2,1,1,1.0E-4,0.0,0.0,0.0
1,6,'01','Sw-Battery-Vl1-Sub5',2,1,1,1.0E-4,0.0,0.0,0.0
1,7,'01','Sw-Line-Vl1-Sub5-Sub1',2,1,1,1.0E-4,0.0,0.0,0.0
0 /  END OF SUBSTATION SWITCHING DEVICE DATA, BEGIN SUBSTATION EQUIPMENT TERMINAL DATA
9,2,'D','Lcc-Vl1-Sub2'
9,4,'M','01'
9,5,'L','02'
9,6,'L','01'
9,3,'B',10,'01'
9,7,'B',1,'01'
0 /  END OF SUBSTATION EQUIPMENT TERMINAL DATA
6,'Sub6',0.0,0.0,0.1
1,'Vl1-Sub6-1',11,1,1.0,0.0
2,'Vl1-Sub6-2',11,1,1.0,0.0
3,'Vl1-Sub6-3',11,1,1.0,0.0
0 /  END OF SUBSTATION NODE DATA, BEGIN SUBSTATION SWITCHING DEVICE DATA
1,2,'01','Sw-DanglingLine-Vl1-Sub6',2,1,1,1.0E-4,0.0,0.0,0.0
1,3,'01','Sw-Load-Vl1-Sub6',2,1,1,1.0E-4,0.0,0.0,0.0
0 /  END OF SUBSTATION SWITCHING DEVICE DATA, BEGIN SUBSTATION EQUIPMENT TERMINAL DATA
11,3,'L','01'
11,2,'B',2,'01'
0 /  END OF SUBSTATION EQUIPMENT TERMINAL DATA
0 / END OF SUBSTATION DATA
Q
